* NGSPICE file created from pwm.ext - technology: sky130A

.subckt magic_nand A B Y VDD VSS a_100_n230#
X0 Y A VDD VDD sky130_fd_pr__pfet_01v8 ad=0.5 pd=2.5 as=0.9 ps=4.9 w=2 l=0.5
**devattr s=36000,980 d=20000,500
X1 Y B a_100_n230# VSS sky130_fd_pr__nfet_01v8 ad=0.9 pd=4.9 as=0.5 ps=2.5 w=2 l=0.5
**devattr s=20000,500 d=36000,980
X2 a_100_n230# A VSS VSS sky130_fd_pr__nfet_01v8 ad=0.5 pd=2.5 as=0.9 ps=4.9 w=2 l=0.5
**devattr s=36000,980 d=20000,500
X3 VDD B Y VDD sky130_fd_pr__pfet_01v8 ad=0.9 pd=4.9 as=0.5 ps=2.5 w=2 l=0.5
**devattr s=20000,500 d=36000,980
C0 Y A 0.09013f
C1 B a_100_n230# 0.014208f
C2 B Y 0.253425f
C3 Y a_100_n230# 0.017664f
C4 VDD A 0.202433f
C5 B VDD 0.118732f
C6 a_100_n230# VDD 0.002196f
C7 Y VDD 0.207993f
C8 B A 0.21018f
C9 Y VSS 0.271727f
C10 B VSS 0.476474f
C11 A VSS 0.453547f
C12 VDD VSS 1.23585f
C13 a_100_n230# VSS 0.028228f
.ends

.subckt magic_inv X Y VDD VSS
X0 Y X VDD VDD sky130_fd_pr__pfet_01v8 ad=0.9 pd=4.9 as=0.9 ps=4.9 w=2 l=0.5
**devattr s=36000,980 d=36000,980
X1 Y X VSS VSS sky130_fd_pr__nfet_01v8 ad=0.45 pd=2.9 as=0.45 ps=2.9 w=1 l=0.5
**devattr s=18000,580 d=18000,580
C0 VDD X 0.197978f
C1 Y X 0.105971f
C2 VDD Y 0.10691f
C3 Y VSS 0.267668f
C4 X VSS 0.481952f
C5 VDD VSS 0.843976f
.ends

.subckt magic_dff clk Q magic_nand_2/Y magic_nand_3/Y notQ magic_nand_1/a_100_n230#
+ magic_nand_2/a_100_n230# magic_inv_0/Y D VDD VSS
Xmagic_nand_0 magic_nand_3/Y notQ Q VDD VSS magic_nand_0/a_100_n230# magic_nand
Xmagic_nand_1 Q magic_nand_2/Y notQ VDD VSS magic_nand_1/a_100_n230# magic_nand
Xmagic_nand_2 magic_inv_0/Y clk magic_nand_2/Y VDD VSS magic_nand_2/a_100_n230# magic_nand
Xmagic_nand_3 clk D magic_nand_3/Y VDD VSS magic_nand_3/a_100_n230# magic_nand
Xmagic_inv_0 D magic_inv_0/Y VDD VSS magic_inv
C0 magic_nand_3/Y clk 5.03e-19
C1 Q magic_nand_2/Y 0.070054f
C2 magic_nand_3/Y D 0.013145f
C3 magic_nand_2/Y magic_nand_3/a_100_n230# 0.003027f
C4 magic_nand_3/Y notQ 0.112791f
C5 VDD magic_nand_2/Y 0.013097f
C6 Q clk 0.022129f
C7 Q D 3.91e-19
C8 Q magic_inv_0/Y 3.16e-19
C9 magic_nand_3/a_100_n230# clk 9.29e-20
C10 Q notQ 0.204136f
C11 magic_nand_3/a_100_n230# D 6.62e-20
C12 VDD clk 0.276198f
C13 VDD D 0.282719f
C14 VDD magic_inv_0/Y 0.082291f
C15 Q magic_nand_3/Y 0.011129f
C16 VDD notQ 0.444233f
C17 VDD magic_nand_0/a_100_n230# 0.009399f
C18 magic_nand_2/Y clk 0.005838f
C19 magic_nand_2/Y D 0.005584f
C20 magic_nand_2/Y magic_inv_0/Y 0.005014f
C21 VDD magic_nand_3/Y 0.06714f
C22 magic_nand_2/Y notQ 0.027101f
C23 magic_nand_2/a_100_n230# clk 3.18e-19
C24 magic_nand_2/Y magic_nand_1/a_100_n230# 1.53e-19
C25 clk D 0.512204f
C26 magic_nand_2/Y magic_nand_3/Y 0.003303f
C27 magic_inv_0/Y clk 0.126572f
C28 magic_inv_0/Y D 0.025042f
C29 clk notQ 6.78e-19
C30 VDD Q 0.780984f
C31 notQ D 0.004634f
C32 VDD magic_nand_3/a_100_n230# 0.007823f
C33 magic_nand_0/a_100_n230# notQ 0.008218f
C34 VDD VSS 6.870138f
C35 D VSS 1.396145f
C36 magic_nand_3/Y VSS 0.626503f
C37 magic_nand_3/a_100_n230# VSS 0.028228f
C38 magic_nand_2/Y VSS 0.830572f
C39 clk VSS 3.249527f
C40 magic_inv_0/Y VSS 0.560832f
C41 magic_nand_2/a_100_n230# VSS 0.040303f
C42 Q VSS 1.533211f
C43 magic_nand_1/a_100_n230# VSS 0.034833f
C44 notQ VSS 1.445663f
C45 magic_nand_0/a_100_n230# VSS 0.028228f
.ends

.subckt magic_xnor A magic_nand_1/Y magic_nand_2/Y magic_nand_1/a_100_n230# magic_nand_0/a_100_n230#
+ magic_inv_1/Y magic_nand_2/a_100_n230# magic_inv_0/Y B VDD Y VSS
Xmagic_nand_0 magic_nand_1/Y magic_nand_2/Y Y VDD VSS magic_nand_0/a_100_n230# magic_nand
Xmagic_nand_1 A B magic_nand_1/Y VDD VSS magic_nand_1/a_100_n230# magic_nand
Xmagic_nand_2 magic_inv_0/Y magic_inv_1/Y magic_nand_2/Y VDD VSS magic_nand_2/a_100_n230#
+ magic_nand
Xmagic_inv_0 B magic_inv_0/Y VDD VSS magic_inv
Xmagic_inv_1 A magic_inv_1/Y VDD VSS magic_inv
C0 Y VDD 0.016266f
C1 VSS magic_nand_2/a_100_n230# 0.012357f
C2 magic_nand_0/a_100_n230# magic_inv_1/Y 1.14e-19
C3 magic_inv_0/Y magic_inv_1/Y 0.134093f
C4 Y B 3.91e-19
C5 Y magic_nand_2/Y 0.074699f
C6 B VDD 0.134682f
C7 VDD magic_nand_2/Y 0.072046f
C8 B magic_nand_2/Y 0.002564f
C9 VSS Y -0.029084f
C10 VSS VDD 0.742841f
C11 VSS B 0.023906f
C12 VSS magic_nand_2/Y 0.190942f
C13 Y magic_nand_0/a_100_n230# -0.013335f
C14 magic_nand_0/a_100_n230# VDD -0.001132f
C15 magic_nand_1/Y magic_inv_1/Y 2.81e-19
C16 magic_inv_0/Y VDD 0.082312f
C17 magic_nand_0/a_100_n230# magic_nand_2/Y 0.038774f
C18 B magic_inv_0/Y 0.015802f
C19 magic_inv_0/Y magic_nand_2/Y 0.016464f
C20 magic_nand_1/a_100_n230# magic_inv_1/Y 1.71e-19
C21 VSS magic_nand_0/a_100_n230# -0.022613f
C22 VSS magic_inv_0/Y 0.027978f
C23 A magic_inv_1/Y 0.01498f
C24 Y magic_nand_1/Y -0.005512f
C25 magic_nand_1/Y VDD 0.02847f
C26 magic_inv_1/Y magic_nand_2/a_100_n230# 3.18e-19
C27 B magic_nand_1/Y 0.015962f
C28 magic_nand_1/Y magic_nand_2/Y 0.07956f
C29 magic_nand_1/a_100_n230# VDD 0.009875f
C30 Y magic_inv_1/Y 2.91e-19
C31 VSS magic_nand_1/Y 0.083428f
C32 magic_inv_1/Y VDD 0.073805f
C33 A VDD 0.242512f
C34 magic_nand_1/a_100_n230# B 1.42e-19
C35 B magic_inv_1/Y 0.051559f
C36 magic_inv_1/Y magic_nand_2/Y 0.021402f
C37 A B 0.175283f
C38 A magic_nand_2/Y 6e-19
C39 magic_nand_0/a_100_n230# magic_nand_1/Y 3.07e-20
C40 magic_nand_1/Y magic_inv_0/Y 0.021701f
C41 VSS magic_inv_1/Y 0.464243f
C42 VSS A 0.04505f
C43 VDD 0 5.241346f
C44 VSS 0 -0.106448f
C45 magic_nand_2/Y 0 0.735869f
C46 magic_inv_1/Y 0 0.876545f
C47 magic_inv_0/Y 0 0.513873f
C48 magic_nand_2/a_100_n230# 0 0.028228f
C49 magic_nand_1/Y 0 0.570102f
C50 B 0 0.998797f
C51 A 0 1.186725f
C52 magic_nand_1/a_100_n230# 0 0.028228f
C53 Y 0 0.299583f
C54 magic_nand_0/a_100_n230# 0 0.028228f
.ends

.subckt magic_and A Y VDD B magic_nand_0/a_100_n230# magic_inv_0/X VSS
Xmagic_nand_0 A B magic_inv_0/X VDD VSS magic_nand_0/a_100_n230# magic_nand
Xmagic_inv_0 magic_inv_0/X Y VDD VSS magic_inv
C0 VDD magic_inv_0/X 0.005293f
C1 VDD Y 0.001742f
C2 magic_inv_0/X VSS 0.09428f
C3 VSS A 0.003964f
C4 magic_nand_0/a_100_n230# VSS 0.004912f
C5 magic_inv_0/X B 0.013119f
C6 Y B 4.88e-19
C7 VDD B 0.005182f
C8 B VSS 0.009819f
C9 Y magic_inv_0/X 0.010551f
C10 VSS 0 3.79e-20
C11 Y 0 0.252201f
C12 VDD 0 1.901415f
C13 magic_inv_0/X 0 0.650359f
C14 B 0 0.460323f
C15 A 0 0.453547f
C16 magic_nand_0/a_100_n230# 0 0.028228f
.ends

.subckt magic_comp A0 A1 Y magic_and_1/magic_inv_0/X magic_and_1/B magic_xnor_1/magic_inv_1/Y
+ magic_xnor_1/magic_inv_0/Y magic_xnor_0/magic_nand_2/Y magic_xnor_2/magic_nand_1/Y
+ magic_and_2/magic_inv_0/X magic_xnor_2/magic_inv_0/Y magic_xnor_2/magic_inv_1/Y
+ magic_xnor_3/magic_nand_1/Y A3 magic_xnor_1/magic_nand_2/Y magic_and_0/B magic_xnor_3/magic_nand_0/a_100_n230#
+ B0 magic_xnor_3/magic_nand_2/Y magic_xnor_3/magic_nand_1/a_100_n230# magic_and_2/B
+ magic_xnor_3/magic_inv_1/Y B3 magic_and_1/A magic_xnor_0/magic_nand_1/Y magic_xnor_3/magic_inv_0/Y
+ magic_xnor_2/magic_nand_2/Y magic_and_0/magic_inv_0/X magic_and_0/A magic_xnor_0/magic_inv_1/Y
+ magic_xnor_0/magic_inv_0/Y VDD B1 A2 magic_and_2/A magic_xnor_1/magic_nand_1/Y VSS
+ B2
Xmagic_xnor_0 B0 magic_xnor_0/magic_nand_1/Y magic_xnor_0/magic_nand_2/Y magic_xnor_0/magic_nand_1/a_100_n230#
+ magic_xnor_0/magic_nand_0/a_100_n230# magic_xnor_0/magic_inv_1/Y magic_xnor_0/magic_nand_2/a_100_n230#
+ magic_xnor_0/magic_inv_0/Y A0 VDD magic_and_0/B VSS magic_xnor
Xmagic_xnor_1 B1 magic_xnor_1/magic_nand_1/Y magic_xnor_1/magic_nand_2/Y magic_xnor_1/magic_nand_1/a_100_n230#
+ magic_xnor_1/magic_nand_0/a_100_n230# magic_xnor_1/magic_inv_1/Y magic_xnor_1/magic_nand_2/a_100_n230#
+ magic_xnor_1/magic_inv_0/Y A1 VDD magic_and_0/A VSS magic_xnor
Xmagic_xnor_2 B2 magic_xnor_2/magic_nand_1/Y magic_xnor_2/magic_nand_2/Y magic_xnor_2/magic_nand_1/a_100_n230#
+ magic_xnor_2/magic_nand_0/a_100_n230# magic_xnor_2/magic_inv_1/Y magic_xnor_2/magic_nand_2/a_100_n230#
+ magic_xnor_2/magic_inv_0/Y A2 VDD magic_and_1/A VSS magic_xnor
Xmagic_xnor_3 B3 magic_xnor_3/magic_nand_1/Y magic_xnor_3/magic_nand_2/Y magic_xnor_3/magic_nand_1/a_100_n230#
+ magic_xnor_3/magic_nand_0/a_100_n230# magic_xnor_3/magic_inv_1/Y magic_xnor_3/magic_nand_2/a_100_n230#
+ magic_xnor_3/magic_inv_0/Y A3 VDD magic_and_2/A VSS magic_xnor
Xmagic_and_0 magic_and_0/A magic_and_1/B VDD magic_and_0/B magic_and_0/magic_nand_0/a_100_n230#
+ magic_and_0/magic_inv_0/X VSS magic_and
Xmagic_and_1 magic_and_1/A magic_and_2/B VDD magic_and_1/B magic_and_1/magic_nand_0/a_100_n230#
+ magic_and_1/magic_inv_0/X VSS magic_and
Xmagic_and_2 magic_and_2/A Y VDD magic_and_2/B magic_and_2/magic_nand_0/a_100_n230#
+ magic_and_2/magic_inv_0/X VSS magic_and
C0 A3 A2 1.739336f
C1 magic_and_0/B VSS 0.322655f
C2 magic_and_0/B magic_xnor_0/magic_inv_1/Y 0.004862f
C3 magic_xnor_2/magic_inv_1/Y magic_and_1/B 0.001122f
C4 B1 magic_xnor_1/magic_nand_1/Y 6.29e-19
C5 magic_and_1/magic_inv_0/X magic_xnor_2/magic_inv_0/Y 7.57e-19
C6 VSS magic_and_1/magic_inv_0/X 0.00493f
C7 magic_xnor_1/magic_inv_1/Y magic_and_1/B 7.65e-20
C8 magic_and_2/magic_inv_0/X A3 0.001223f
C9 B0 VDD 0.217725f
C10 magic_xnor_1/magic_nand_1/Y A1 0.002948f
C11 magic_and_1/magic_inv_0/X magic_and_2/A 0.003363f
C12 B2 VDD 0.458517f
C13 VSS magic_xnor_0/magic_inv_0/Y 3.91e-20
C14 magic_and_0/magic_inv_0/X magic_xnor_1/magic_nand_1/Y 3.43e-20
C15 magic_and_0/magic_inv_0/X magic_and_1/A 0.003363f
C16 magic_and_0/B magic_xnor_1/magic_inv_1/Y 0.01381f
C17 magic_xnor_2/magic_inv_1/Y magic_and_1/magic_inv_0/X 6.54e-19
C18 magic_and_1/magic_inv_0/X magic_xnor_2/magic_nand_1/Y 3.43e-20
C19 magic_and_1/magic_nand_0/a_100_n230# magic_and_1/B 3.05e-20
C20 magic_and_0/A magic_xnor_2/magic_nand_2/Y 9.88e-19
C21 magic_and_0/A magic_xnor_1/magic_nand_2/Y 0.157912f
C22 magic_and_0/A A2 0.085823f
C23 B2 A3 0.032768f
C24 magic_and_0/magic_inv_0/X magic_xnor_1/magic_inv_0/Y 7.57e-19
C25 magic_and_2/B magic_and_1/magic_inv_0/X 0.00375f
C26 VDD magic_xnor_3/magic_nand_1/Y 0.001607f
C27 VDD magic_xnor_3/magic_nand_2/Y 6.99e-19
C28 VSS magic_xnor_3/magic_inv_1/Y 0.065528f
C29 magic_and_2/A magic_xnor_3/magic_inv_1/Y 0.116308f
C30 VDD magic_xnor_2/magic_inv_0/Y 8.48e-19
C31 VDD VSS 2.22109f
C32 VDD magic_xnor_0/magic_inv_1/Y 0.015491f
C33 VDD magic_and_2/A 0.512407f
C34 magic_and_0/B B1 0.020686f
C35 magic_xnor_2/magic_inv_1/Y magic_xnor_3/magic_inv_1/Y 3.28e-20
C36 magic_xnor_1/magic_nand_2/Y A2 0.011525f
C37 magic_and_0/magic_inv_0/X magic_and_1/B 0.00375f
C38 VDD magic_xnor_0/magic_nand_2/a_100_n230# 3.88e-19
C39 magic_and_0/B A1 0.093186f
C40 Y magic_and_2/magic_inv_0/X 0.002706f
C41 B0 magic_xnor_0/magic_nand_2/Y 1.93e-19
C42 magic_xnor_2/magic_inv_1/Y VDD 0.001633f
C43 VDD magic_xnor_2/magic_nand_1/Y 0.005274f
C44 magic_and_0/magic_inv_0/X magic_and_0/B 0.001364f
C45 B0 A0 0.041536f
C46 B1 magic_xnor_0/magic_inv_0/Y 5.27e-20
C47 A3 magic_xnor_3/magic_nand_1/Y 0.002948f
C48 VDD magic_xnor_1/magic_inv_1/Y 0.001633f
C49 VDD B3 0.332265f
C50 B2 A0 0.034392f
C51 B2 magic_and_0/A 0.016031f
C52 magic_and_1/A magic_xnor_3/magic_inv_0/Y 9.2e-20
C53 magic_and_0/magic_inv_0/X magic_and_1/magic_inv_0/X 7.26e-21
C54 A3 VSS 0.003625f
C55 magic_and_2/B magic_xnor_3/magic_inv_1/Y 0.001122f
C56 A3 magic_and_2/A 4.36e-19
C57 magic_and_2/B VDD 0.004945f
C58 VDD magic_xnor_1/magic_nand_0/a_100_n230# 6.22e-19
C59 magic_and_1/A magic_and_1/B 0.061618f
C60 A3 magic_xnor_2/magic_nand_1/Y 0.022873f
C61 VDD magic_xnor_2/magic_nand_0/a_100_n230# 6.22e-19
C62 B2 magic_xnor_1/magic_nand_2/Y 0.020436f
C63 B2 A2 0.486209f
C64 A3 B3 0.700245f
C65 magic_and_0/B magic_xnor_1/magic_nand_1/a_100_n230# 5.94e-20
C66 magic_and_0/B magic_xnor_1/magic_nand_1/Y 0.001166f
C67 magic_xnor_0/magic_nand_2/Y VSS -0.006408f
C68 B1 VDD 0.617586f
C69 magic_and_1/A magic_and_1/magic_inv_0/X 0.046398f
C70 magic_and_0/A magic_xnor_2/magic_inv_0/Y 9.2e-20
C71 VSS A0 7.9e-19
C72 magic_xnor_3/magic_nand_2/a_100_n230# VSS 1.59e-19
C73 magic_and_0/A VSS 0.560822f
C74 VDD A1 0.78035f
C75 magic_xnor_3/magic_nand_2/a_100_n230# magic_and_2/A 0.008718f
C76 magic_xnor_0/magic_nand_1/Y VDD 0.004772f
C77 magic_xnor_1/magic_nand_2/a_100_n230# magic_and_0/A 0.008718f
C78 magic_xnor_1/magic_inv_0/Y magic_and_1/B 9.81e-20
C79 magic_and_0/magic_inv_0/X VDD 0.002386f
C80 magic_xnor_2/magic_inv_1/Y magic_and_0/A 0.012688f
C81 magic_xnor_1/magic_inv_0/Y magic_and_0/B 9.2e-20
C82 magic_and_0/A magic_xnor_2/magic_nand_1/Y 0.001166f
C83 A0 B3 0.080192f
C84 magic_and_0/A magic_xnor_1/magic_inv_1/Y 0.116308f
C85 B0 B2 0.018364f
C86 Y VSS 0.116668f
C87 magic_xnor_1/magic_nand_2/Y magic_xnor_2/magic_inv_0/Y 3.03e-21
C88 VSS magic_xnor_2/magic_nand_2/Y -0.006235f
C89 Y magic_and_2/A 0.048107f
C90 magic_xnor_1/magic_nand_2/Y VSS -0.006235f
C91 VSS A2 0.003673f
C92 magic_and_2/magic_inv_0/X magic_xnor_3/magic_nand_1/Y 3.43e-20
C93 magic_and_0/B magic_and_1/B 2.03e-24
C94 magic_and_2/magic_inv_0/X VSS 0.034941f
C95 magic_and_1/A magic_xnor_3/magic_inv_1/Y 0.012688f
C96 magic_and_2/magic_inv_0/X magic_and_2/A 0.046398f
C97 magic_xnor_1/magic_nand_1/a_100_n230# VDD 6.99e-19
C98 magic_and_1/magic_inv_0/X magic_and_1/B 0.001566f
C99 A2 magic_xnor_2/magic_nand_1/Y 0.002948f
C100 B3 magic_xnor_2/magic_nand_2/Y 0.015825f
C101 VDD magic_xnor_1/magic_nand_1/Y 0.004688f
C102 magic_and_1/A VDD 0.637375f
C103 A2 B3 0.102095f
C104 magic_xnor_0/magic_nand_2/Y B1 0.041193f
C105 magic_and_2/magic_inv_0/X B3 2.93e-19
C106 magic_and_0/B magic_xnor_0/magic_inv_0/Y 2.6e-19
C107 VDD magic_xnor_2/magic_nand_1/a_100_n230# 6.99e-19
C108 B1 A0 0.064621f
C109 magic_xnor_0/magic_nand_2/Y A1 0.017422f
C110 magic_and_0/A B1 0.009691f
C111 A0 A1 0.107301f
C112 B0 VSS 0.031873f
C113 magic_and_0/A A1 4.36e-19
C114 B2 VSS 0.019736f
C115 magic_xnor_1/magic_inv_0/Y VDD 8.48e-19
C116 magic_and_0/magic_inv_0/X magic_and_0/A 0.046398f
C117 magic_and_1/A A3 0.081673f
C118 magic_and_2/magic_inv_0/X magic_and_2/B 0.001566f
C119 B2 magic_xnor_2/magic_nand_1/Y 6.29e-19
C120 B0 B3 6.28e-19
C121 B2 magic_xnor_1/magic_inv_1/Y 0.005651f
C122 B1 A2 0.036498f
C123 B2 B3 1.6929f
C124 VDD magic_and_1/B 0.004945f
C125 A2 A1 1.014962f
C126 magic_and_0/B VDD 0.207216f
C127 VSS magic_xnor_3/magic_nand_2/Y -0.006249f
C128 magic_and_2/A magic_xnor_3/magic_nand_2/Y 0.157912f
C129 VDD magic_and_1/magic_inv_0/X 0.002386f
C130 VSS magic_xnor_2/magic_inv_0/Y 0.002448f
C131 magic_and_1/A magic_and_0/A 0.006892f
C132 magic_and_2/magic_nand_0/a_100_n230# VSS 0.001392f
C133 magic_xnor_0/magic_inv_1/Y VSS 0.062078f
C134 VDD magic_xnor_0/magic_inv_0/Y 0.004118f
C135 VSS magic_and_2/A 0.543962f
C136 magic_xnor_1/magic_nand_2/a_100_n230# VSS 1.59e-19
C137 B3 magic_xnor_3/magic_nand_1/Y 6.29e-19
C138 VDD magic_xnor_0/magic_nand_1/a_100_n230# 6.99e-19
C139 magic_and_0/A magic_xnor_2/magic_nand_1/a_100_n230# 5.94e-20
C140 magic_xnor_2/magic_inv_1/Y VSS 0.065676f
C141 B0 B1 0.415585f
C142 B2 B1 1.076414f
C143 magic_xnor_1/magic_inv_1/Y magic_xnor_2/magic_inv_0/Y 1.15e-20
C144 magic_xnor_1/magic_inv_0/Y magic_xnor_0/magic_nand_2/Y 3.03e-21
C145 B3 magic_xnor_2/magic_inv_0/Y 1.67e-20
C146 VSS magic_xnor_1/magic_inv_1/Y 0.065676f
C147 B0 A1 0.050185f
C148 VSS B3 0.018158f
C149 magic_xnor_0/magic_inv_1/Y magic_xnor_1/magic_inv_1/Y 3.28e-20
C150 B2 A1 0.132649f
C151 magic_xnor_0/magic_nand_1/Y B0 8.29e-19
C152 magic_and_1/A magic_xnor_2/magic_nand_2/Y 0.157912f
C153 magic_and_2/A B3 0.009691f
C154 magic_xnor_1/magic_nand_1/Y A2 0.029803f
C155 magic_xnor_0/magic_nand_1/Y B2 2.61e-19
C156 magic_and_1/A A2 4.36e-19
C157 magic_xnor_1/magic_inv_0/Y magic_and_0/A 0.012015f
C158 magic_xnor_2/magic_inv_1/Y magic_xnor_1/magic_inv_1/Y 3.28e-20
C159 magic_xnor_2/magic_inv_1/Y B3 0.005651f
C160 magic_xnor_2/magic_nand_1/Y B3 0.011024f
C161 magic_and_2/B magic_xnor_2/magic_inv_0/Y 9.81e-20
C162 magic_and_2/magic_nand_0/a_100_n230# magic_and_2/B 3.05e-20
C163 magic_and_2/B VSS 0.01737f
C164 VSS magic_and_1/magic_nand_0/a_100_n230# 2.17e-19
C165 magic_and_2/B magic_and_2/A 0.061619f
C166 VSS magic_xnor_2/magic_nand_2/a_100_n230# 1.59e-19
C167 magic_and_0/A magic_and_1/B 0.043537f
C168 Y magic_xnor_3/magic_inv_0/Y 1.24e-19
C169 magic_xnor_0/magic_nand_0/a_100_n230# VDD 6.22e-19
C170 magic_xnor_3/magic_inv_0/Y magic_xnor_2/magic_nand_2/Y 3.03e-21
C171 magic_and_0/B magic_xnor_0/magic_nand_2/Y 0.141165f
C172 magic_xnor_2/magic_inv_1/Y magic_and_2/B 7.65e-20
C173 magic_and_0/B A0 1.17e-19
C174 magic_and_0/B magic_and_0/A 0.158653f
C175 magic_and_2/B B3 0.001222f
C176 magic_and_2/magic_inv_0/X magic_xnor_3/magic_inv_0/Y 7.57e-19
C177 B1 VSS 0.023016f
C178 B1 magic_xnor_0/magic_inv_1/Y 0.005651f
C179 B2 magic_xnor_1/magic_nand_1/Y 0.017161f
C180 A3 magic_xnor_3/magic_inv_1/Y 1.42e-32
C181 B2 magic_and_1/A 0.009691f
C182 VSS A1 0.003673f
C183 magic_and_0/magic_inv_0/X VSS 0.004879f
C184 VDD A3 1.162519f
C185 magic_and_0/B magic_xnor_1/magic_nand_2/Y 9.88e-19
C186 B1 B3 0.001349f
C187 B3 A1 0.09995f
C188 magic_and_1/magic_inv_0/X A2 0.001223f
C189 magic_xnor_0/magic_nand_1/Y B3 9.75e-20
C190 magic_and_0/magic_inv_0/X magic_xnor_1/magic_inv_1/Y 6.54e-19
C191 B2 magic_xnor_1/magic_inv_0/Y 3.57e-20
C192 magic_and_2/magic_inv_0/X magic_and_1/magic_inv_0/X 7.26e-21
C193 magic_and_1/A magic_xnor_3/magic_nand_1/Y 0.001166f
C194 magic_and_1/A magic_xnor_3/magic_nand_2/Y 9.88e-19
C195 magic_xnor_0/magic_nand_2/Y VDD 0.008234f
C196 magic_and_1/A magic_xnor_3/magic_nand_1/a_100_n230# 5.94e-20
C197 magic_and_1/A magic_xnor_2/magic_inv_0/Y 0.012015f
C198 VDD A0 0.061379f
C199 magic_and_0/A VDD 0.629023f
C200 magic_and_1/A VSS 0.561339f
C201 B2 magic_and_1/B 0.001222f
C202 magic_and_1/A magic_and_2/A 0.006892f
C203 B0 magic_and_0/B 2.5e-19
C204 magic_and_1/A magic_xnor_2/magic_inv_1/Y 0.116308f
C205 Y magic_xnor_3/magic_inv_1/Y 9.91e-20
C206 B1 A1 0.306032f
C207 B2 magic_and_1/magic_inv_0/X 2.93e-19
C208 magic_xnor_0/magic_nand_1/Y B1 0.042386f
C209 magic_and_1/A B3 0.014558f
C210 magic_and_0/magic_inv_0/X B1 2.93e-19
C211 VDD magic_xnor_2/magic_nand_2/Y 0.007048f
C212 magic_xnor_3/magic_inv_0/Y VSS 0.003026f
C213 magic_xnor_0/magic_nand_1/Y A1 0.044988f
C214 magic_xnor_1/magic_nand_2/Y VDD 0.006794f
C215 VDD A2 0.944114f
C216 magic_xnor_1/magic_inv_0/Y VSS 0.002448f
C217 magic_xnor_3/magic_inv_0/Y magic_and_2/A 0.012015f
C218 magic_xnor_1/magic_inv_0/Y magic_xnor_0/magic_inv_1/Y 1.15e-20
C219 magic_and_0/magic_inv_0/X A1 0.001223f
C220 magic_and_2/magic_inv_0/X magic_xnor_3/magic_inv_1/Y 6.54e-19
C221 magic_and_2/magic_inv_0/X VDD 8.33e-19
C222 magic_xnor_2/magic_inv_1/Y magic_xnor_3/magic_inv_0/Y 1.15e-20
C223 magic_and_1/A magic_and_2/B 0.043537f
C224 magic_and_1/A magic_xnor_2/magic_nand_2/a_100_n230# 0.008718f
C225 VSS magic_and_1/B 0.011683f
C226 A3 magic_xnor_2/magic_nand_2/Y 0.00868f
C227 Y 0 0.539191f
C228 magic_and_2/magic_inv_0/X 0 0.650359f
C229 magic_and_2/B 0 1.005271f
C230 magic_and_2/magic_nand_0/a_100_n230# 0 0.028228f
C231 magic_and_1/magic_inv_0/X 0 0.650359f
C232 magic_and_1/B 0 1.005271f
C233 magic_and_1/magic_nand_0/a_100_n230# 0 0.028228f
C234 VDD 0 26.95971f
C235 magic_and_0/magic_inv_0/X 0 0.650359f
C236 magic_and_0/magic_nand_0/a_100_n230# 0 0.028228f
C237 magic_xnor_3/magic_nand_2/Y 0 0.735869f
C238 magic_xnor_3/magic_inv_1/Y 0 0.876545f
C239 magic_xnor_3/magic_inv_0/Y 0 0.513873f
C240 magic_xnor_3/magic_nand_2/a_100_n230# 0 0.028228f
C241 magic_xnor_3/magic_nand_1/Y 0 0.570102f
C242 A3 0 1.833927f
C243 B3 0 3.097305f
C244 magic_xnor_3/magic_nand_1/a_100_n230# 0 0.028228f
C245 magic_and_2/A 0 1.742389f
C246 magic_xnor_3/magic_nand_0/a_100_n230# 0 0.028228f
C247 magic_xnor_2/magic_nand_2/Y 0 0.735869f
C248 magic_xnor_2/magic_inv_1/Y 0 0.876545f
C249 magic_xnor_2/magic_inv_0/Y 0 0.513873f
C250 magic_xnor_2/magic_nand_2/a_100_n230# 0 0.028228f
C251 magic_xnor_2/magic_nand_1/Y 0 0.570102f
C252 A2 0 1.444479f
C253 B2 0 2.326525f
C254 magic_xnor_2/magic_nand_1/a_100_n230# 0 0.028228f
C255 magic_and_1/A 0 1.548071f
C256 magic_xnor_2/magic_nand_0/a_100_n230# 0 0.028228f
C257 VSS 0 0.155042f
C258 magic_xnor_1/magic_nand_2/Y 0 0.735869f
C259 magic_xnor_1/magic_inv_1/Y 0 0.876545f
C260 magic_xnor_1/magic_inv_0/Y 0 0.513873f
C261 magic_xnor_1/magic_nand_2/a_100_n230# 0 0.028228f
C262 magic_xnor_1/magic_nand_1/Y 0 0.570102f
C263 A1 0 1.401717f
C264 B1 0 2.835861f
C265 magic_xnor_1/magic_nand_1/a_100_n230# 0 0.028228f
C266 magic_and_0/A 0 1.481641f
C267 magic_xnor_1/magic_nand_0/a_100_n230# 0 0.028228f
C268 magic_xnor_0/magic_nand_2/Y 0 0.735869f
C269 magic_xnor_0/magic_inv_1/Y 0 0.876545f
C270 magic_xnor_0/magic_inv_0/Y 0 0.513873f
C271 magic_xnor_0/magic_nand_2/a_100_n230# 0 0.028228f
C272 magic_xnor_0/magic_nand_1/Y 0 0.570102f
C273 A0 0 0.982813f
C274 B0 0 1.769344f
C275 magic_xnor_0/magic_nand_1/a_100_n230# 0 0.028228f
C276 magic_and_0/B 0 1.359748f
C277 magic_xnor_0/magic_nand_0/a_100_n230# 0 0.028228f
.ends

.subckt magic_etdff clk magic_dff_1/magic_nand_1/a_100_n230# magic_dff_0/magic_nand_3/Y
+ magic_dff_1/magic_nand_2/a_100_n230# magic_dff_0/magic_inv_0/Y magic_dff_1/magic_nand_3/Y
+ notQ magic_inv_1/Y magic_dff_1/magic_inv_0/Y magic_dff_0/magic_nand_2/Y magic_dff_1/D
+ magic_inv_1/X magic_dff_0/notQ D magic_dff_1/magic_nand_2/Y VDD Q VSS
Xmagic_dff_0 magic_inv_1/X magic_dff_1/D magic_dff_0/magic_nand_2/Y magic_dff_0/magic_nand_3/Y
+ magic_dff_0/notQ magic_dff_0/magic_nand_1/a_100_n230# magic_dff_0/magic_nand_2/a_100_n230#
+ magic_dff_0/magic_inv_0/Y D VDD VSS magic_dff
Xmagic_dff_1 magic_inv_1/Y Q magic_dff_1/magic_nand_2/Y magic_dff_1/magic_nand_3/Y
+ notQ magic_dff_1/magic_nand_1/a_100_n230# magic_dff_1/magic_nand_2/a_100_n230# magic_dff_1/magic_inv_0/Y
+ magic_dff_1/D VDD VSS magic_dff
Xmagic_inv_0 clk magic_inv_1/X VDD VSS magic_inv
Xmagic_inv_1 magic_inv_1/X magic_inv_1/Y VDD VSS magic_inv
C0 magic_inv_1/Y magic_dff_0/magic_nand_1/a_100_n230# 0.008718f
C1 magic_dff_0/magic_nand_3/Y magic_dff_1/D 1.26e-19
C2 magic_inv_1/Y magic_dff_0/magic_inv_0/Y 0.017008f
C3 magic_dff_0/notQ magic_inv_1/Y 0.083427f
C4 clk VDD 0.009114f
C5 magic_inv_1/Y VDD 0.062853f
C6 magic_inv_1/X clk 0.021739f
C7 magic_inv_1/Y magic_inv_1/X 0.260754f
C8 magic_inv_1/Y magic_dff_1/magic_inv_0/Y 2.6e-20
C9 magic_dff_0/magic_nand_2/Y magic_inv_1/Y 0.061361f
C10 magic_dff_0/notQ VDD 7.2e-19
C11 magic_dff_1/D magic_inv_1/Y 0.082207f
C12 magic_dff_0/notQ magic_dff_1/magic_inv_0/Y 0.003242f
C13 notQ VDD 1.06e-19
C14 magic_dff_0/notQ magic_dff_1/magic_nand_3/Y 6.01e-20
C15 VDD Q 0.00382f
C16 notQ Q 9.94e-19
C17 magic_dff_1/magic_nand_2/Y notQ 2.15e-19
C18 magic_inv_1/X VDD 0.339081f
C19 magic_dff_1/magic_nand_3/Y VDD 2.12e-19
C20 D clk 0.023212f
C21 D magic_inv_1/Y 0.084411f
C22 magic_dff_0/notQ magic_dff_1/D 0.08104f
C23 magic_dff_0/magic_nand_2/Y magic_dff_1/magic_inv_0/Y 4.14e-19
C24 magic_dff_1/D VDD 0.050093f
C25 magic_dff_0/magic_nand_3/Y magic_inv_1/Y 1.59e-19
C26 magic_dff_1/D magic_dff_1/magic_nand_3/Y 0.001872f
C27 magic_dff_0/magic_nand_2/Y magic_dff_1/D 1.04e-20
C28 D VDD 0.123858f
C29 D magic_inv_1/X 0.100784f
C30 magic_dff_0/magic_nand_3/Y VDD 7.84e-20
C31 magic_inv_1/Y magic_dff_0/magic_nand_2/a_100_n230# 0.008718f
C32 magic_dff_0/magic_nand_3/Y magic_inv_1/X 0.002282f
C33 magic_inv_1/X VSS 3.219988f
C34 clk VSS 0.513302f
C35 VDD VSS 14.160234f
C36 magic_dff_1/D VSS 2.570121f
C37 magic_dff_1/magic_nand_3/Y VSS 0.625399f
C38 magic_dff_1/magic_nand_3/a_100_n230# VSS 0.028228f
C39 magic_dff_1/magic_nand_2/Y VSS 0.670071f
C40 magic_inv_1/Y VSS 4.860871f
C41 magic_dff_1/magic_inv_0/Y VSS 0.538833f
C42 magic_dff_1/magic_nand_2/a_100_n230# VSS 0.028228f
C43 Q VSS 1.439376f
C44 magic_dff_1/magic_nand_1/a_100_n230# VSS 0.028228f
C45 notQ VSS 1.098129f
C46 magic_dff_1/magic_nand_0/a_100_n230# VSS 0.028228f
C47 D VSS 1.527642f
C48 magic_dff_0/magic_nand_3/Y VSS 0.625399f
C49 magic_dff_0/magic_nand_3/a_100_n230# VSS 0.028228f
C50 magic_dff_0/magic_nand_2/Y VSS 0.66738f
C51 magic_dff_0/magic_inv_0/Y VSS 0.539688f
C52 magic_dff_0/magic_nand_2/a_100_n230# VSS 0.028578f
C53 magic_dff_0/magic_nand_1/a_100_n230# VSS 0.029266f
C54 magic_dff_0/notQ VSS 1.079399f
C55 magic_dff_0/magic_nand_0/a_100_n230# VSS 0.028228f
.ends

.subckt magic_counter clk S0 S1 S2 S3 magic_etdff_1/magic_dff_1/D magic_etdff_0/magic_dff_1/magic_nand_3/Y
+ magic_etdff_3/magic_dff_1/magic_nand_2/Y magic_etdff_2/magic_dff_0/notQ magic_etdff_1/magic_inv_1/Y
+ magic_etdff_1/magic_dff_1/magic_nand_3/Y magic_etdff_2/magic_dff_0/magic_inv_0/Y
+ magic_etdff_3/magic_dff_1/magic_nand_1/a_100_n230# magic_etdff_2/magic_dff_1/D magic_etdff_1/magic_inv_1/X
+ magic_etdff_3/magic_dff_0/magic_inv_0/Y magic_etdff_1/magic_dff_0/notQ magic_etdff_2/magic_dff_1/magic_inv_0/Y
+ magic_etdff_3/magic_dff_1/magic_nand_3/Y magic_etdff_2/magic_dff_0/magic_nand_2/Y
+ magic_etdff_0/D magic_etdff_0/magic_inv_1/Y magic_etdff_0/magic_dff_1/D magic_etdff_0/magic_inv_1/X
+ magic_etdff_3/magic_dff_0/notQ magic_etdff_2/D magic_etdff_3/magic_dff_1/magic_inv_0/Y
+ magic_etdff_0/magic_dff_0/magic_nand_3/Y magic_etdff_3/magic_inv_1/X magic_etdff_3/magic_inv_1/Y
+ magic_etdff_3/magic_dff_0/magic_nand_2/Y magic_etdff_2/magic_inv_1/X magic_etdff_1/D
+ magic_etdff_0/magic_dff_0/notQ magic_etdff_2/magic_dff_1/magic_nand_2/Y magic_etdff_0/magic_dff_0/magic_inv_0/Y
+ magic_etdff_3/magic_dff_1/D magic_etdff_1/magic_dff_0/magic_nand_3/Y VSS magic_etdff_3/D
+ VDD magic_etdff_2/magic_inv_1/Y
Xmagic_etdff_0 clk magic_etdff_0/magic_dff_1/magic_nand_1/a_100_n230# magic_etdff_0/magic_dff_0/magic_nand_3/Y
+ magic_etdff_0/magic_dff_1/magic_nand_2/a_100_n230# magic_etdff_0/magic_dff_0/magic_inv_0/Y
+ magic_etdff_0/magic_dff_1/magic_nand_3/Y magic_etdff_0/D magic_etdff_0/magic_inv_1/Y
+ magic_etdff_0/magic_dff_1/magic_inv_0/Y magic_etdff_0/magic_dff_0/magic_nand_2/Y
+ magic_etdff_0/magic_dff_1/D magic_etdff_0/magic_inv_1/X magic_etdff_0/magic_dff_0/notQ
+ magic_etdff_0/D magic_etdff_0/magic_dff_1/magic_nand_2/Y VDD S0 VSS magic_etdff
Xmagic_etdff_1 S0 magic_etdff_1/magic_dff_1/magic_nand_1/a_100_n230# magic_etdff_1/magic_dff_0/magic_nand_3/Y
+ magic_etdff_1/magic_dff_1/magic_nand_2/a_100_n230# magic_etdff_1/magic_dff_0/magic_inv_0/Y
+ magic_etdff_1/magic_dff_1/magic_nand_3/Y magic_etdff_1/D magic_etdff_1/magic_inv_1/Y
+ magic_etdff_1/magic_dff_1/magic_inv_0/Y magic_etdff_1/magic_dff_0/magic_nand_2/Y
+ magic_etdff_1/magic_dff_1/D magic_etdff_1/magic_inv_1/X magic_etdff_1/magic_dff_0/notQ
+ magic_etdff_1/D magic_etdff_1/magic_dff_1/magic_nand_2/Y VDD S1 VSS magic_etdff
Xmagic_etdff_2 S1 magic_etdff_2/magic_dff_1/magic_nand_1/a_100_n230# magic_etdff_2/magic_dff_0/magic_nand_3/Y
+ magic_etdff_2/magic_dff_1/magic_nand_2/a_100_n230# magic_etdff_2/magic_dff_0/magic_inv_0/Y
+ magic_etdff_2/magic_dff_1/magic_nand_3/Y magic_etdff_2/D magic_etdff_2/magic_inv_1/Y
+ magic_etdff_2/magic_dff_1/magic_inv_0/Y magic_etdff_2/magic_dff_0/magic_nand_2/Y
+ magic_etdff_2/magic_dff_1/D magic_etdff_2/magic_inv_1/X magic_etdff_2/magic_dff_0/notQ
+ magic_etdff_2/D magic_etdff_2/magic_dff_1/magic_nand_2/Y VDD S2 VSS magic_etdff
Xmagic_etdff_3 S2 magic_etdff_3/magic_dff_1/magic_nand_1/a_100_n230# magic_etdff_3/magic_dff_0/magic_nand_3/Y
+ magic_etdff_3/magic_dff_1/magic_nand_2/a_100_n230# magic_etdff_3/magic_dff_0/magic_inv_0/Y
+ magic_etdff_3/magic_dff_1/magic_nand_3/Y magic_etdff_3/D magic_etdff_3/magic_inv_1/Y
+ magic_etdff_3/magic_dff_1/magic_inv_0/Y magic_etdff_3/magic_dff_0/magic_nand_2/Y
+ magic_etdff_3/magic_dff_1/D magic_etdff_3/magic_inv_1/X magic_etdff_3/magic_dff_0/notQ
+ magic_etdff_3/D magic_etdff_3/magic_dff_1/magic_nand_2/Y VDD S3 VSS magic_etdff
C0 magic_etdff_3/magic_inv_1/X VDD 0.006701f
C1 magic_etdff_0/magic_dff_1/magic_inv_0/Y S1 4.78e-19
C2 magic_etdff_2/magic_dff_0/notQ magic_etdff_0/D 8.03e-19
C3 magic_etdff_2/magic_dff_0/magic_nand_3/Y magic_etdff_0/magic_dff_1/D 0.004383f
C4 magic_etdff_2/D magic_etdff_0/D 0.001606f
C5 magic_etdff_0/D magic_etdff_0/magic_dff_1/D 0.001408f
C6 S2 magic_etdff_0/D 1.25e-19
C7 magic_etdff_0/magic_dff_1/magic_inv_0/Y VDD 0.001022f
C8 magic_etdff_2/D magic_etdff_3/D 0.125665f
C9 S2 magic_etdff_3/D 0.075506f
C10 magic_etdff_1/magic_dff_1/magic_nand_1/a_100_n230# magic_etdff_1/D 0.00545f
C11 magic_etdff_2/magic_dff_0/magic_nand_3/Y magic_etdff_0/magic_inv_1/Y 4.9e-19
C12 S1 VDD 1.363633f
C13 S1 magic_etdff_3/magic_dff_1/magic_nand_3/Y 0.014898f
C14 magic_etdff_3/magic_dff_0/magic_nand_2/Y S2 4.7e-20
C15 magic_etdff_0/D magic_etdff_0/magic_inv_1/Y 1.006191f
C16 VDD magic_etdff_2/magic_dff_1/magic_nand_2/Y 4.92e-19
C17 magic_etdff_1/magic_dff_0/magic_inv_0/Y S0 0.01029f
C18 S0 magic_etdff_2/D 6.32e-21
C19 S0 S2 1.20837f
C20 magic_etdff_3/magic_inv_1/Y S2 0.058461f
C21 S1 magic_etdff_2/magic_inv_1/X 0.030211f
C22 magic_etdff_0/D magic_etdff_2/magic_inv_1/Y 0.001608f
C23 magic_etdff_2/magic_inv_1/X VDD 1.57e-19
C24 magic_etdff_0/D magic_etdff_0/magic_dff_0/magic_inv_0/Y 8.75e-19
C25 S1 magic_etdff_0/magic_inv_1/X 0.003922f
C26 S3 S2 0.020942f
C27 magic_etdff_1/magic_dff_0/magic_inv_0/Y magic_etdff_1/D 3.3e-19
C28 magic_etdff_2/magic_dff_1/D magic_etdff_2/D 0.001336f
C29 S0 magic_etdff_1/magic_dff_0/magic_nand_2/Y 0.009909f
C30 clk VDD 0.002002f
C31 magic_etdff_0/magic_inv_1/X VDD 0.001553f
C32 magic_etdff_0/magic_dff_1/magic_nand_2/Y magic_etdff_0/D 0.036891f
C33 magic_etdff_0/magic_dff_0/magic_nand_2/Y magic_etdff_2/magic_dff_0/magic_nand_3/Y 2.01e-20
C34 magic_etdff_3/magic_dff_0/notQ S2 0.032829f
C35 magic_etdff_2/magic_inv_1/X magic_etdff_0/magic_inv_1/X 0.001257f
C36 magic_etdff_2/magic_dff_1/D magic_etdff_0/magic_inv_1/Y 0.003587f
C37 magic_etdff_0/magic_dff_0/magic_nand_2/Y magic_etdff_0/D 8.03e-19
C38 magic_etdff_2/magic_dff_1/magic_nand_3/Y magic_etdff_0/D 8.85e-19
C39 magic_etdff_3/magic_dff_1/magic_nand_2/Y magic_etdff_3/D 0.035472f
C40 magic_etdff_1/magic_dff_0/magic_nand_2/Y magic_etdff_1/D 3.07e-19
C41 magic_etdff_2/magic_dff_1/magic_nand_1/a_100_n230# magic_etdff_2/D 0.005219f
C42 magic_etdff_2/magic_dff_1/magic_nand_3/Y magic_etdff_3/D 8.1e-20
C43 S0 magic_etdff_0/magic_dff_1/magic_nand_2/Y 0.008298f
C44 S0 magic_etdff_1/magic_dff_1/magic_nand_3/Y 1.75e-19
C45 magic_etdff_3/magic_inv_1/X magic_etdff_2/D 0.001672f
C46 magic_etdff_1/magic_dff_1/magic_nand_1/a_100_n230# VDD 0.004571f
C47 magic_etdff_3/magic_inv_1/X S2 0.08124f
C48 S0 magic_etdff_2/magic_dff_1/magic_nand_3/Y 0.004383f
C49 magic_etdff_2/magic_dff_0/notQ S1 0.002567f
C50 S1 magic_etdff_2/D 0.0064f