Version 4
SHEET 1 880 680
WIRE -224 128 -224 112
WIRE -16 160 -96 160
WIRE 160 160 96 160
WIRE -96 176 -96 160
WIRE -224 224 -224 208
WIRE -224 240 -224 224
FLAG -224 112 VDD
FLAG -224 224 VSS
FLAG -224 240 0
FLAG 32 128 VDD
FLAG 32 192 VSS
FLAG -96 256 0
FLAG 160 224 0
SYMBOL voltage -224 112 R0
WINDOW 123 0 0 Left 0
WINDOW 39 0 0 Left 0
SYMATTR InstName V1
SYMATTR Value 3.3
SYMBOL voltage -96 160 R0
WINDOW 123 0 0 Left 0
WINDOW 39 0 0 Left 0
SYMATTR InstName V2
SYMATTR Value PULSE(0 3.3 0 10n 10n 2u 4u 20)
SYMBOL Inverter 32 160 R0
SYMATTR InstName X1
SYMBOL cap 144 160 R0
SYMATTR InstName C1
SYMATTR Value {C1}
TEXT -272 296 Left 2 !.tran 20u
TEXT -272 320 Left 2 !.step param C1 1p 51p 10p
TEXT -264 -16 Left 2 ;Lab 0: CMOS Hierarchy Inverter with output capacitance sweep\nWyatt Tack
