Version 4
SHEET 1 880 680
WIRE 64 -16 -80 -16
WIRE 272 0 240 0
WIRE 64 16 32 16
WIRE 272 80 272 0
WIRE 336 80 272 80
WIRE 64 128 -80 128
WIRE 272 144 272 80
WIRE 272 144 240 144
WIRE 64 160 -32 160
WIRE 32 256 32 16
WIRE -32 352 -32 160
WIRE 32 352 32 336
WIRE 32 352 -32 352
WIRE 128 352 32 352
WIRE 128 384 128 352
FLAG -80 -16 A
FLAG -80 128 B
FLAG 128 384 Sel
FLAG 336 80 Y
FLAG 112 -48 VDD
FLAG 208 -32 VDD
FLAG 0 288 VDD
FLAG 208 112 VDD
FLAG 112 96 VDD
FLAG 208 176 VSS
FLAG 112 192 VSS
FLAG 64 288 VSS
FLAG 208 32 VSS
FLAG 112 48 VSS
SYMBOL NAND 80 0 R0
SYMATTR InstName X1
SYMBOL NAND 80 144 R0
SYMATTR InstName X2
SYMBOL NOT 192 144 R0
SYMATTR InstName X3
SYMBOL NOT 192 0 R0
SYMATTR InstName X5
SYMBOL NOT 32 304 R270
SYMATTR InstName X6
