Version 4
SHEET 1 880 680
WIRE 144 144 32 144
WIRE 144 176 32 176
WIRE 224 208 176 208
WIRE 208 224 208 160
WIRE 240 224 208 224
WIRE 352 240 304 240
WIRE 240 256 208 256
WIRE 144 288 32 288
WIRE 208 304 208 256
WIRE 144 320 32 320
WIRE 176 384 176 352
WIRE 224 384 224 208
WIRE 224 384 176 384
WIRE 224 464 224 384
WIRE 272 464 272 288
FLAG 32 144 A
FLAG 32 176 B
FLAG 32 288 C
FLAG 32 320 D
FLAG 272 464 Sel1
FLAG 224 464 Sel0
FLAG 352 240 Y
FLAG 256 192 VDD
FLAG 160 112 VDD
FLAG 160 256 VDD
FLAG 160 208 VSS
FLAG 256 288 VSS
FLAG 160 352 VSS
SYMBOL MUX2-1 176 144 R0
SYMATTR InstName X1
SYMBOL MUX2-1 176 288 R0
SYMATTR InstName X2
SYMBOL MUX2-1 272 224 R0
SYMATTR InstName X3
